 12
c5h7_aggregates_ag_a_005_b_007_003_selected_result_024_000_ag_a_005_b_007.xyz
H      0.85417     2.36272     0.86733
H     -1.27688    -3.81059    -0.07888
C     -0.73982    -2.89281    -0.11642
C     -0.96372    -1.61834     0.00979
C     -0.21790     0.71959     0.04139
H      0.51950     2.50577    -0.85200
C      0.79871     1.80299    -0.06660
H      1.05001    -0.91199    -0.31336
C      0.04324    -0.57691    -0.10239
H     -1.22853     1.04696     0.25416
H      1.78160     1.39676    -0.29123
H     -1.97390    -1.23578     0.21812
